11
Lattice="1.0 0.0 0.0 0.0 1.0 0.0 0.0 0.0 1.0" Properties=species:S:1:pos:R:3:Z:I:1 pbc="F F F"
C      -0.56414200       0.10627700       0.00009200        6 
O      -0.60873800       1.30991300      -0.00003900        8 
O      -1.67803600      -0.66541400      -0.00000800        8 
H      -2.42955000      -0.05387200      -0.00008400        1 
C       0.69038300      -0.73911600       0.00005100        6 
H       0.64086300      -1.40317300       0.87138200        1 
H       0.64076700      -1.40324800      -0.87121600        1 
C       1.96818200       0.09537600      -0.00005400        6 
H       2.84847200      -0.55300900      -0.00006400        1 
H       2.01350900       0.74099600      -0.88064900        1 
H       2.01359200       0.74108700       0.88047000        1 
G4MP2-0K                                             (Ha): -268.058190
G4MP2-ZPE                                            (Ha):   0.088983
G4MP2-Energy                                         (Ha): -268.052361
G4MP2-Enthalpy                                       (Ha): -268.051417
G4MP2-FreeE                                          (Ha): -268.087607
Solvation Energies (kcal/mol)
Water    -4.7353
ACN      -5.3742
DMSO     -5.2499
