12
Lattice="1.0 0.0 0.0 0.0 1.0 0.0 0.0 0.0 1.0" Properties=species:S:1:pos:R:3:Z:I:1 pbc="F F F"
C      -1.10215500       0.07908800      -0.00000000        6 
O      -1.39558000       1.25190200       0.00001100        8 
O      -2.03853600      -0.90381300      -0.00000800        8 
H      -2.89545700      -0.45238800      -0.00000600        1 
C       0.26201900      -0.48417700      -0.00000200        6 
C       1.32814200       0.31905500      -0.00000900        6 
C       2.75902200      -0.13926700       0.00000300        6 
H       3.45167700       0.70474100      -0.00016200        1 
H       2.97794400      -0.75396500       0.88026100        1 
H       2.97787100      -0.75426300      -0.88006300        1 
H       1.13328800       1.38935500      -0.00001900        1 
H       0.34543500      -1.56638600       0.00000500        1 
G4MP2-0K                                             (Ha): -306.086423
G4MP2-ZPE                                            (Ha):   0.093688
G4MP2-Energy                                         (Ha): -306.080426
G4MP2-Enthalpy                                       (Ha): -306.079482
G4MP2-FreeE                                          (Ha): -306.116217
Solvation Energies (kcal/mol)
Water    -4.7378
ACN      -5.9249
DMSO     -5.4458
