9
Lattice="1.0 0.0 0.0 0.0 1.0 0.0 0.0 0.0 1.0" Properties=species:S:1:pos:R:3:Z:I:1 pbc="F F F"
O      -1.23925100      -0.25975600      -0.10787800        8 
C      -0.08646200       0.55421100       0.04661600        6 
H      -0.12996600       1.27894200      -0.77332600        1 
H      -0.12852200       1.12961800       0.98544200        1 
H      -1.24418800      -0.89843300       0.61217000        1 
C       1.21560400      -0.23869100      -0.02186900        6 
H       1.27709100      -0.79543300      -0.96152300        1 
H       2.08265600       0.42700000       0.04732300        1 
H       1.28208700      -0.95677100       0.80445600        1 
G4MP2-0K                                             (Ha): -154.814467
G4MP2-ZPE                                            (Ha):   0.078659
G4MP2-Energy                                         (Ha): -154.810160
G4MP2-Enthalpy                                       (Ha): -154.809215
G4MP2-FreeE                                          (Ha): -154.839863
Solvation Energies (kcal/mol)
Water    -3.6567
ACN      -3.6233
DMSO     -2.9890
