8
Lattice="1.0 0.0 0.0 0.0 1.0 0.0 0.0 0.0 1.0" Properties=species:S:1:pos:R:3:Z:I:1 pbc="F F F"
C       0.81205100       0.46081100      -0.00001400        6 
O       1.40116800      -0.59547600       0.00001400        8 
H       1.37103400       1.42227600      -0.00005300        1 
C      -0.66571300       0.60009300       0.00000800        6 
C      -1.46779600      -0.46571100      -0.00000700        6 
H      -1.04134200      -1.46407000      -0.00004500        1 
H      -2.54840000      -0.37769800       0.00001700        1 
H      -1.06188300       1.61214000       0.00004600        1 
G4MP2-0K                                             (Ha): -191.647516
G4MP2-ZPE                                            (Ha):   0.060460
G4MP2-Energy                                         (Ha): -191.643116
G4MP2-Enthalpy                                       (Ha): -191.642171
G4MP2-FreeE                                          (Ha): -191.673979
Solvation Energies (kcal/mol)
Water    -1.8293
ACN      -3.8270
DMSO     -3.3010
