11
Lattice="1.0 0.0 0.0 0.0 1.0 0.0 0.0 0.0 1.0" Properties=species:S:1:pos:R:3:Z:I:1 pbc="F F F"
C       1.51742100       0.41318400      -0.00000400        6 
O       2.01608100      -0.69108000       0.00000500        8 
H       2.16013600       1.32165000      -0.00000800        1 
C       0.06610500       0.68698700       0.00000100        6 
C      -0.83403700      -0.30379200      -0.00000400        6 
H      -0.43925000      -1.31806000      -0.00001400        1 
H      -0.23708800       1.73196800       0.00001100        1 
C      -2.32499700      -0.12797700       0.00000200        6 
H      -2.65676800       0.43514200      -0.87973600        1 
H      -2.84586700      -1.08760100      -0.00000700        1 
H      -2.65676400       0.43512400       0.87975200        1 
G4MP2-0K                                             (Ha): -230.890663
G4MP2-ZPE                                            (Ha):   0.087782
G4MP2-Energy                                         (Ha): -230.885382
G4MP2-Enthalpy                                       (Ha): -230.884438
G4MP2-FreeE                                          (Ha): -230.918946
Solvation Energies (kcal/mol)
Water    -2.4293
ACN      -4.9075
DMSO     -4.1906
