24
Lattice="1.0 0.0 0.0 0.0 1.0 0.0 0.0 0.0 1.0" Properties=species:S:1:pos:R:3:Z:I:1 pbc="F F F"
C      -0.79633900      -0.49824200      -0.19953800        6 
C      -0.55648100       1.01110900       0.00622200        6 
C       0.97409900       1.09781100       0.02796200        6 
C       1.41373100      -0.10235800      -0.83373800        6 
O       0.23248200      -0.91515000      -1.04690800        8 
O      -1.12071200       1.49317800       1.21341200        8 
O       1.50390700       2.28769200      -0.52689800        8 
C       2.50546200      -0.96093600      -0.19948800        6 
O       2.20635300      -1.34814700       1.12286200        8 
C      -2.13535800      -0.82595400      -0.84836800        6 
O      -3.12366900      -0.15371500      -0.06782800        8 
H      -3.99344900      -0.36530600      -0.41656800        1 
H      -2.07865200       1.40588600       1.10865200        1 
H       1.36685600       2.99416200       0.11227200        1 
H      -0.92890200       1.56646800      -0.86427800        1 
H       1.31748900       0.95324200       1.05940200        1 
H       1.74740000       0.25869200      -1.81276800        1 
H       2.67635300      -1.83140600      -0.85238800        1 
H       3.43585100      -0.38162500      -0.16472800        1 
H       1.28403300      -1.64879800       1.13879200        1 
H      -2.13128900      -0.46897400      -1.88653800        1 
H      -2.28334600      -1.91298400      -0.84136800        1 
O      -0.69659800      -1.16497100       1.05190200        8 
H      -0.85713900      -0.48903200       1.72891200        1 
G4MP2-0K                                             (Ha): -686.384938
G4MP2-ZPE                                            (Ha):   0.193829
G4MP2-Energy                                         (Ha): -686.372394
G4MP2-Enthalpy                                       (Ha): -686.371450
G4MP2-FreeE                                          (Ha): -686.422750
Solvation Energies (kcal/mol)
Water   -16.1013
ACN     -10.5882
DMSO    -10.5923
