13
Lattice="1.0 0.0 0.0 0.0 1.0 0.0 0.0 0.0 1.0" Properties=species:S:1:pos:R:3:Z:I:1 pbc="F F F"
C      -1.69469200      -0.67442700       0.00001000        6 
C      -0.38209500      -1.39915800      -0.00004000        6 
C       0.61556600      -0.51360900       0.00000900        6 
C       0.00955900       0.84809900       0.00001800        6 
O      -1.35578200       0.71032300       0.00007500        8 
H      -0.30653100      -2.47925000      -0.00016300        1 
H      -2.30321300      -0.89410100       0.88671700        1 
O       0.55485500       1.91603800      -0.00007500        8 
H      -2.30294600      -0.89414700      -0.88692900        1 
C       2.09574600      -0.69124800       0.00003400        6 
H       2.53961200      -0.20703300      -0.87627900        1 
H       2.53947800      -0.20748500       0.87666800        1 
H       2.37651200      -1.74682600      -0.00019600        1 
G4MP2-0K                                             (Ha): -344.132158
G4MP2-ZPE                                            (Ha):   0.100768
G4MP2-Energy                                         (Ha): -344.125747
G4MP2-Enthalpy                                       (Ha): -344.124803
G4MP2-FreeE                                          (Ha): -344.162515
Solvation Energies (kcal/mol)
Water    -5.7163
ACN      -7.6282
DMSO     -7.2827
