15
Lattice="1.0 0.0 0.0 0.0 1.0 0.0 0.0 0.0 1.0" Properties=species:S:1:pos:R:3:Z:I:1 pbc="F F F"
C      -2.05046600      -1.06301600      -0.00023200        6 
C      -2.57005400       0.19617400       0.00020600        6 
C      -1.45401400       1.07877200       0.00035100        6 
C      -0.33271900       0.29512000      -0.00000100        6 
O      -0.69864400      -1.02494000      -0.00037200        8 
H      -2.48923800      -2.04769600      -0.00045300        1 
H      -3.61618600       0.45778000       0.00037800        1 
H      -1.45290800       2.15621200       0.00065200        1 
C       1.06826600       0.76036600      -0.00011500        6 
O       2.11100200      -0.09562500      -0.00017200        8 
O       1.29267400       1.94637400      -0.00019400        8 
C       1.99543200      -1.52062700       0.00040300        6 
H       1.47783600      -1.88316300       0.89145800        1 
H       1.47833500      -1.88390400      -0.89064900        1 
H       3.02322900      -1.88644100       0.00084600        1 
G4MP2-0K                                             (Ha): -457.312081
G4MP2-ZPE                                            (Ha):   0.111076
G4MP2-Energy                                         (Ha): -457.303974
G4MP2-Enthalpy                                       (Ha): -457.303030
G4MP2-FreeE                                          (Ha): -457.345985
Solvation Energies (kcal/mol)
Water    -4.4213
ACN      -6.9621
DMSO     -6.3187
