24
Lattice="1.0 0.0 0.0 0.0 1.0 0.0 0.0 0.0 1.0" Properties=species:S:1:pos:R:3:Z:I:1 pbc="F F F"
O      -2.96536800       1.61066700       0.00002100        8 
H      -3.56128000       0.84985900       0.00016300        1 
C      -1.69902700       1.12004300       0.00000800        6 
C      -1.47508300      -0.26778500       0.00002300        6 
C      -0.60995400       1.98142400      -0.00004200        6 
C      -0.18144700      -0.76611700       0.00002800        6 
C       0.68611100       1.47791500      -0.00006100        6 
H      -0.79704100       3.04940700      -0.00006000        1 
C       0.92983700       0.09907100      -0.00001100        6 
H      -0.01011800      -1.83609100       0.00009100        1 
H       1.51566100       2.17550900      -0.00012200        1 
O      -2.62645500      -1.01314600       0.00007200        8 
C      -2.51151600      -2.42287700      -0.00007500        6 
H      -3.53005100      -2.81439300      -0.00018100        1 
H      -1.98515300      -2.78139900      -0.89357000        1 
H      -1.98526700      -2.78160900       0.89340400        1 
C       2.27241700      -0.49172600       0.00000100        6 
C       3.45272300       0.13725800       0.00003000        6 
C       4.78358000      -0.55118900       0.00001000        6 
H       5.37925100      -0.27043300      -0.87842000        1 
H       5.37922900      -0.27050600       0.87847600        1 
H       4.67318400      -1.63974200      -0.00004000        1 
H       3.48552000       1.22530800       0.00006900        1 
H       2.28480600      -1.58218200      -0.00002000        1 
G4MP2-0K                                             (Ha): -537.926203
G4MP2-ZPE                                            (Ha):   0.195123
G4MP2-Energy                                         (Ha): -537.913995
G4MP2-Enthalpy                                       (Ha): -537.913051
G4MP2-FreeE                                          (Ha): -537.965031
Solvation Energies (kcal/mol)
Water    -2.7646
ACN      -7.8817
DMSO     -5.9580
