17
Lattice="1.0 0.0 0.0 0.0 1.0 0.0 0.0 0.0 1.0" Properties=species:S:1:pos:R:3:Z:I:1 pbc="F F F"
C       0.39193400       1.28388200       0.35469900        6 
C       1.16073700      -0.00001200       0.06753500        6 
C       0.39190200      -1.28390400       0.35463300        6 
C      -1.01196300      -1.26480400      -0.28467100        6 
C      -1.78855900       0.00004500       0.10215700        6 
C      -1.01187400       1.26481900      -0.28473800        6 
H       0.99026900      -2.13196800       0.01326400        1 
H       0.28422300       1.36743600       1.44602500        1 
H       0.99034200       2.13196200       0.01344600        1 
H      -0.90911200      -1.30708700      -1.37694100        1 
H      -1.56330100      -2.16371800       0.01082200        1 
H      -2.77196000       0.00006000      -0.38046800        1 
H      -1.97203900       0.00008600       1.18575400        1 
H      -0.90891600       1.30697900      -1.37700300        1 
H      -1.56318700       2.16379600       0.01060700        1 
H       0.28430900      -1.36754700       1.44596600        1 
O       2.29328800      -0.00001900      -0.35614500        8 
G4MP2-0K                                             (Ha): -309.404788
G4MP2-ZPE                                            (Ha):   0.148329
G4MP2-Energy                                         (Ha): -309.398207
G4MP2-Enthalpy                                       (Ha): -309.397263
G4MP2-FreeE                                          (Ha): -309.435226
Solvation Energies (kcal/mol)
Water    -3.7522
ACN      -6.7701
DMSO     -6.1696
