8
Lattice="1.0 0.0 0.0 0.0 1.0 0.0 0.0 0.0 1.0" Properties=species:S:1:pos:R:3:Z:I:1 pbc="F F F"
C       0.82693700       0.48921400       0.00003500        6 
O       1.34932900      -0.59951800      -0.00026400        8 
C      -0.67452400       0.64558000       0.00006700        6 
H      -0.94737100       1.25392200       0.88070800        1 
H      -0.94742200       1.25391800      -0.88056000        1 
H       1.42122000       1.42617400       0.00034500        1 
O      -1.32686200      -0.58680700       0.00010600        8 
H      -0.62064000      -1.25217300       0.00015200        1 
G4MP2-0K                                             (Ha): -228.775729
G4MP2-ZPE                                            (Ha):   0.060151
G4MP2-Energy                                         (Ha): -228.771268
G4MP2-Enthalpy                                       (Ha): -228.770324
G4MP2-FreeE                                          (Ha): -228.802309
Solvation Energies (kcal/mol)
Water    -5.0297
ACN      -5.1191
DMSO     -5.4554
