14
Lattice="1.0 0.0 0.0 0.0 1.0 0.0 0.0 0.0 1.0" Properties=species:S:1:pos:R:3:Z:I:1 pbc="F F F"
O      -2.76509600      -0.11121700       0.00002900        8 
H      -3.13216300       0.77830000      -0.00024700        1 
C      -1.39945400      -0.02668400       0.00002200        6 
C      -0.67567600      -1.21756700      -0.00000500        6 
C      -0.71498500       1.18942400       0.00002500        6 
C       0.71499000      -1.18943200      -0.00000500        6 
C       0.67564200       1.21756200      -0.00003200        6 
C       1.39945900       0.02664800      -0.00007500        6 
H       1.27040900      -2.12387600       0.00004000        1 
H      -1.21247500      -2.15918100      -0.00000400        1 
H      -1.27049800       2.12381900       0.00004700        1 
O       2.76510000       0.11125600       0.00007800        8 
H       3.13232200      -0.77819700      -0.00024300        1 
H       1.21252200       2.15912600      -0.00003300        1 
G4MP2-0K                                             (Ha): -382.181562
G4MP2-ZPE                                            (Ha):   0.106968
G4MP2-Energy                                         (Ha): -382.174727
G4MP2-Enthalpy                                       (Ha): -382.173783
G4MP2-FreeE                                          (Ha): -382.212130
Solvation Energies (kcal/mol)
Water    -8.6579
ACN      -9.2561
DMSO     -8.0106
